* NGSPICE file created from heichips25_CORDIC.ext - technology: ihp-sg13g2

* Black-box entry subcircuit for sg13g2_dfrbpq_1 abstract view
.subckt sg13g2_dfrbpq_1 RESET_B VSS VDD D Q CLK
.ends

* Black-box entry subcircuit for sg13g2_dfrbpq_2 abstract view
.subckt sg13g2_dfrbpq_2 RESET_B VSS VDD D Q CLK
.ends

* Black-box entry subcircuit for sg13g2_fill_1 abstract view
.subckt sg13g2_fill_1 VDD VSS
.ends

* Black-box entry subcircuit for sg13g2_tiehi abstract view
.subckt sg13g2_tiehi VDD VSS L_HI
.ends

* Black-box entry subcircuit for sg13g2_nand2b_1 abstract view
.subckt sg13g2_nand2b_1 Y B A_N VDD VSS
.ends

* Black-box entry subcircuit for sg13g2_a21oi_1 abstract view
.subckt sg13g2_a21oi_1 VSS VDD A1 A2 Y B1
.ends

* Black-box entry subcircuit for sg13g2_nor2_1 abstract view
.subckt sg13g2_nor2_1 A B Y VDD VSS
.ends

* Black-box entry subcircuit for sg13g2_xnor2_1 abstract view
.subckt sg13g2_xnor2_1 Y A B VDD VSS
.ends

* Black-box entry subcircuit for sg13g2_and2_1 abstract view
.subckt sg13g2_and2_1 A B X VDD VSS
.ends

* Black-box entry subcircuit for sg13g2_dlygate4sd3_1 abstract view
.subckt sg13g2_dlygate4sd3_1 A VDD VSS X
.ends

* Black-box entry subcircuit for sg13g2_decap_8 abstract view
.subckt sg13g2_decap_8 VDD VSS
.ends

* Black-box entry subcircuit for sg13g2_a22oi_1 abstract view
.subckt sg13g2_a22oi_1 Y B1 B2 A2 A1 VDD VSS
.ends

* Black-box entry subcircuit for sg13g2_o21ai_1 abstract view
.subckt sg13g2_o21ai_1 B1 VDD Y VSS A1 A2
.ends

* Black-box entry subcircuit for sg13g2_nor4_1 abstract view
.subckt sg13g2_nor4_1 A B C D Y VDD VSS
.ends

* Black-box entry subcircuit for sg13g2_nand2_1 abstract view
.subckt sg13g2_nand2_1 Y A B VDD VSS
.ends

* Black-box entry subcircuit for sg13g2_nor2b_1 abstract view
.subckt sg13g2_nor2b_1 A B_N Y VDD VSS
.ends

* Black-box entry subcircuit for sg13g2_nor3_1 abstract view
.subckt sg13g2_nor3_1 A B C Y VDD VSS
.ends

* Black-box entry subcircuit for sg13g2_fill_2 abstract view
.subckt sg13g2_fill_2 VDD VSS
.ends

* Black-box entry subcircuit for sg13g2_nand4_1 abstract view
.subckt sg13g2_nand4_1 B C A Y VDD VSS D
.ends

* Black-box entry subcircuit for sg13g2_a21o_1 abstract view
.subckt sg13g2_a21o_1 A2 A1 B1 X VDD VSS
.ends

* Black-box entry subcircuit for sg13g2_buf_8 abstract view
.subckt sg13g2_buf_8 A X VDD VSS
.ends

* Black-box entry subcircuit for sg13g2_a221oi_1 abstract view
.subckt sg13g2_a221oi_1 VDD VSS B2 C1 B1 A1 Y A2
.ends

* Black-box entry subcircuit for sg13g2_or2_1 abstract view
.subckt sg13g2_or2_1 VSS VDD X B A
.ends

* Black-box entry subcircuit for sg13g2_inv_1 abstract view
.subckt sg13g2_inv_1 VDD Y A VSS
.ends

* Black-box entry subcircuit for sg13g2_xor2_1 abstract view
.subckt sg13g2_xor2_1 B A X VDD VSS
.ends

* Black-box entry subcircuit for sg13g2_and3_1 abstract view
.subckt sg13g2_and3_1 X A B C VDD VSS
.ends

* Black-box entry subcircuit for sg13g2_nand3_1 abstract view
.subckt sg13g2_nand3_1 B C A Y VDD VSS
.ends

* Black-box entry subcircuit for sg13g2_buf_1 abstract view
.subckt sg13g2_buf_1 A X VDD VSS
.ends

* Black-box entry subcircuit for sg13g2_decap_4 abstract view
.subckt sg13g2_decap_4 VDD VSS
.ends

* Black-box entry subcircuit for sg13g2_nor4_2 abstract view
.subckt sg13g2_nor4_2 A B C Y VSS VDD D
.ends

* Black-box entry subcircuit for sg13g2_inv_2 abstract view
.subckt sg13g2_inv_2 Y A VDD VSS
.ends

* Black-box entry subcircuit for sg13g2_buf_2 abstract view
.subckt sg13g2_buf_2 A X VDD VSS
.ends

* Black-box entry subcircuit for sg13g2_nand3b_1 abstract view
.subckt sg13g2_nand3b_1 B C Y VDD VSS A_N
.ends

* Black-box entry subcircuit for sg13g2_a21oi_2 abstract view
.subckt sg13g2_a21oi_2 VSS VDD B1 Y A2 A1
.ends

* Black-box entry subcircuit for sg13g2_nor2b_2 abstract view
.subckt sg13g2_nor2b_2 A B_N Y VDD VSS
.ends

* Black-box entry subcircuit for sg13g2_and3_2 abstract view
.subckt sg13g2_and3_2 X A B C VDD VSS
.ends

* Black-box entry subcircuit for sg13g2_or3_1 abstract view
.subckt sg13g2_or3_1 A B C X VDD VSS
.ends

* Black-box entry subcircuit for sg13g2_a21o_2 abstract view
.subckt sg13g2_a21o_2 A2 A1 B1 X VDD VSS
.ends

* Black-box entry subcircuit for sg13g2_mux4_1 abstract view
.subckt sg13g2_mux4_1 S0 A0 A1 A2 A3 S1 X VDD VSS
.ends

* Black-box entry subcircuit for sg13g2_nor2_2 abstract view
.subckt sg13g2_nor2_2 A B Y VDD VSS
.ends

* Black-box entry subcircuit for sg13g2_nand2b_2 abstract view
.subckt sg13g2_nand2b_2 Y B VDD VSS A_N
.ends

* Black-box entry subcircuit for sg13g2_nand2_2 abstract view
.subckt sg13g2_nand2_2 Y A B VDD VSS
.ends

* Black-box entry subcircuit for sg13g2_mux2_1 abstract view
.subckt sg13g2_mux2_1 A0 A1 S X VDD VSS
.ends

* Black-box entry subcircuit for sg13g2_or4_1 abstract view
.subckt sg13g2_or4_1 A B C D X VDD VSS
.ends

* Black-box entry subcircuit for sg13g2_and4_1 abstract view
.subckt sg13g2_and4_1 A B C D X VDD VSS
.ends

* Black-box entry subcircuit for sg13g2_tielo abstract view
.subckt sg13g2_tielo VDD VSS L_LO
.ends

* Black-box entry subcircuit for sg13g2_inv_4 abstract view
.subckt sg13g2_inv_4 A Y VDD VSS
.ends

* Black-box entry subcircuit for sg13g2_nor3_2 abstract view
.subckt sg13g2_nor3_2 A B C Y VDD VSS
.ends

.subckt heichips25_CORDIC VGND VPWR clk ena rst_n ui_in[0] ui_in[1] ui_in[2] ui_in[3]
+ ui_in[4] ui_in[5] ui_in[6] ui_in[7] uio_in[0] uio_in[1] uio_in[2] uio_in[3] uio_in[4]
+ uio_in[5] uio_in[6] uio_in[7] uio_oe[0] uio_oe[1] uio_oe[2] uio_oe[3] uio_oe[4]
+ uio_oe[5] uio_oe[6] uio_oe[7] uio_out[0] uio_out[1] uio_out[2] uio_out[3] uio_out[4]
+ uio_out[5] uio_out[6] uio_out[7] uo_out[0] uo_out[1] uo_out[2] uo_out[3] uo_out[4]
+ uo_out[5] uo_out[6] uo_out[7]
X_6914_ net270 VGND VPWR _0509_ u_angle_cordic_12b_pmod.angle_cordic_12b.angle_gen.cnt\[8\]
+ clknet_leaf_14_clk sg13g2_dfrbpq_1
X_6845_ net580 VGND VPWR _0454_ u_angle_cordic_12b_pmod.angle_cordic_12b.cordic.x\[1\]\[2\]
+ clknet_leaf_65_clk sg13g2_dfrbpq_2
X_6776_ net649 VGND VPWR net1328 u_angle_cordic_12b_pmod.angle_cordic_12b.cordic.x\[3\]\[9\]
+ clknet_leaf_58_clk sg13g2_dfrbpq_1
XFILLER_22_166 VPWR VGND sg13g2_fill_1
X_6871__343 VPWR VGND net343 sg13g2_tiehi
X_3988_ _0989_ net449 _0987_ VPWR VGND sg13g2_nand2b_1
X_5727_ VGND VPWR _2415_ _2419_ _2422_ _2417_ sg13g2_a21oi_1
X_5658_ _2356_ _2361_ _2362_ VPWR VGND sg13g2_nor2_1
X_4609_ _1494_ u_angle_cordic_12b_pmod.angle_cordic_12b.cordic.x\[8\]\[9\] _1493_
+ VPWR VGND sg13g2_xnor2_1
X_5589_ u_angle_cordic_12b_pmod.angle_cordic_12b.cordic.x\[3\]\[5\] _2302_ _2303_
+ VPWR VGND sg13g2_and2_1
Xhold362 _0362_ VPWR VGND net1119 sg13g2_dlygate4sd3_1
Xhold351 _2909_ VPWR VGND net1108 sg13g2_dlygate4sd3_1
Xhold340 u_angle_cordic_12b_pmod.angle_cordic_12b.cordic.y\[7\]\[1\] VPWR VGND net1097
+ sg13g2_dlygate4sd3_1
Xhold373 u_angle_cordic_12b_pmod.angle_cordic_12b.cordic.x\[1\]\[11\] VPWR VGND net1130
+ sg13g2_dlygate4sd3_1
Xhold395 _0091_ VPWR VGND net1152 sg13g2_dlygate4sd3_1
Xhold384 _0128_ VPWR VGND net1141 sg13g2_dlygate4sd3_1
XFILLER_26_52 VPWR VGND sg13g2_fill_1
XFILLER_27_995 VPWR VGND sg13g2_decap_8
XFILLER_6_811 VPWR VGND sg13g2_decap_8
XFILLER_10_873 VPWR VGND sg13g2_decap_8
XFILLER_6_888 VPWR VGND sg13g2_decap_8
XFILLER_47_8 VPWR VGND sg13g2_decap_8
XFILLER_3_1018 VPWR VGND sg13g2_decap_8
X_6902__553 VPWR VGND net737 sg13g2_tiehi
XFILLER_18_940 VPWR VGND sg13g2_decap_8
XFILLER_45_781 VPWR VGND sg13g2_fill_1
X_4960_ _1789_ net399 net1494 _1778_ net1464 VPWR VGND sg13g2_a22oi_1
XFILLER_33_921 VPWR VGND sg13g2_fill_1
X_4891_ net389 VPWR _1731_ VGND net1167 net1533 sg13g2_o21ai_1
X_3911_ VGND VPWR net863 _0925_ _0041_ _0926_ sg13g2_a21oi_1
X_6630_ net92 VGND VPWR _0239_ u_angle_cordic_12b_pmod.angle_cordic_12b.cordic.x\[11\]\[3\]
+ clknet_leaf_21_clk sg13g2_dfrbpq_1
X_3842_ net950 _0876_ _0877_ VPWR VGND sg13g2_nor2_1
X_6561_ net161 VGND VPWR net833 u_angle_cordic_12b_pmod.angle_cordic_12b.cordic.xyz\[9\].z_sign
+ clknet_leaf_40_clk sg13g2_dfrbpq_2
X_3773_ _0542_ net936 net950 net874 _0821_ VPWR VGND sg13g2_nor4_1
X_5512_ _2239_ net418 net1358 VPWR VGND sg13g2_nand2_1
X_6419__342 VPWR VGND net342 sg13g2_tiehi
X_6492_ net230 VGND VPWR _0101_ u_angle_cordic_12b_pmod.angle_cordic_12b.cordic.y\[7\]\[6\]
+ clknet_leaf_45_clk sg13g2_dfrbpq_1
X_5443_ u_angle_cordic_12b_pmod.angle_cordic_12b.cordic.xyz\[4\].y_shr\[1\] _2180_
+ _2182_ VPWR VGND sg13g2_nor2_1
X_5374_ VGND VPWR _2117_ _2122_ _0307_ _2123_ sg13g2_a21oi_1
X_4325_ net542 net817 _1260_ VPWR VGND sg13g2_nor2b_1
X_4256_ _1195_ VPWR _1202_ VGND net531 _0584_ sg13g2_o21ai_1
X_4187_ net437 _1143_ _1144_ _0099_ VPWR VGND sg13g2_nor3_1
XFILLER_27_236 VPWR VGND sg13g2_fill_2
X_6828_ net597 VGND VPWR _0437_ u_angle_cordic_12b_pmod.angle_cordic_12b.cordic.xyz\[2\].y_shr\[8\]
+ clknet_leaf_8_clk sg13g2_dfrbpq_2
X_6759_ net666 VGND VPWR net1205 u_angle_cordic_12b_pmod.angle_cordic_12b.cordic.z\[4\]\[4\]
+ clknet_leaf_30_clk sg13g2_dfrbpq_1
XFILLER_3_836 VPWR VGND sg13g2_decap_8
Xhold170 _2904_ VPWR VGND net927 sg13g2_dlygate4sd3_1
Xhold192 _0060_ VPWR VGND net949 sg13g2_dlygate4sd3_1
Xhold181 _0023_ VPWR VGND net938 sg13g2_dlygate4sd3_1
XFILLER_46_534 VPWR VGND sg13g2_fill_1
XFILLER_15_976 VPWR VGND sg13g2_decap_8
XFILLER_10_692 VPWR VGND sg13g2_fill_2
X_4110_ _1081_ net499 _1080_ VPWR VGND sg13g2_nand2_1
X_5090_ net1034 _1883_ _0262_ VPWR VGND sg13g2_nor2b_1
X_4041_ _1028_ _1032_ _0939_ _1034_ VPWR VGND _1033_ sg13g2_nand4_1
X_5992_ _2639_ net414 u_angle_cordic_12b_pmod.angle_cordic_12b.cordic.z\[2\]\[8\]
+ VPWR VGND sg13g2_nand2_1
X_4943_ net469 VPWR _1775_ VGND _1769_ _1774_ sg13g2_o21ai_1
X_6613_ net109 VGND VPWR net1342 u_angle_cordic_12b_pmod.angle_cordic_12b.cordic.x\[10\]\[11\]
+ clknet_leaf_25_clk sg13g2_dfrbpq_2
X_4874_ _1717_ net1493 _1716_ VPWR VGND sg13g2_xnor2_1
XFILLER_20_423 VPWR VGND sg13g2_fill_2
X_3825_ _0812_ _0816_ _0864_ _0865_ VPWR VGND sg13g2_nor3_1
XFILLER_21_968 VPWR VGND sg13g2_decap_8
X_6544_ net178 VGND VPWR net1333 u_angle_cordic_12b_pmod.angle_cordic_12b.cordic.x\[8\]\[7\]
+ clknet_leaf_37_clk sg13g2_dfrbpq_1
X_3756_ _0796_ _0785_ _0795_ _0809_ VPWR VGND sg13g2_a21o_1
Xclkbuf_4_12_0_clk clknet_0_clk clknet_4_12_0_clk VPWR VGND sg13g2_buf_8
X_6475_ net247 VGND VPWR _0084_ u_angle_cordic_12b_pmod.angle_cordic_12b.cordic.z\[7\]\[1\]
+ clknet_leaf_38_clk sg13g2_dfrbpq_1
X_5426_ _2167_ net1367 _2166_ VPWR VGND sg13g2_nand2_1
X_3687_ VPWR VGND _0733_ _0739_ _0736_ _0730_ _0740_ _0734_ sg13g2_a221oi_1
X_5357_ VGND VPWR _2103_ _2107_ _0305_ _2108_ sg13g2_a21oi_1
X_4308_ _1241_ _1242_ _1247_ VPWR VGND sg13g2_nor2_1
X_5288_ VGND VPWR _2051_ _2050_ _2048_ sg13g2_or2_1
X_4239_ net479 VPWR _1188_ VGND net962 u_angle_cordic_12b_pmod.angle_cordic_12b.cordic.xyz\[6\].y_shr\[0\]
+ sg13g2_o21ai_1
XFILLER_28_589 VPWR VGND sg13g2_fill_2
XFILLER_43_559 VPWR VGND sg13g2_fill_2
XFILLER_12_935 VPWR VGND sg13g2_decap_8
XFILLER_23_261 VPWR VGND sg13g2_fill_2
XFILLER_7_405 VPWR VGND sg13g2_fill_1
XFILLER_3_611 VPWR VGND sg13g2_fill_1
Xfanout480 net491 net480 VPWR VGND sg13g2_buf_8
Xfanout491 net505 net491 VPWR VGND sg13g2_buf_8
X_4590_ _1480_ _0608_ net1086 VPWR VGND sg13g2_nand2_1
X_3610_ VGND VPWR _0663_ _0662_ _0661_ sg13g2_or2_1
X_3541_ VPWR _0611_ net1272 VGND sg13g2_inv_1
X_3472_ VPWR _0542_ u_angle_cordic_12b_pmod.u_vga_top.h_cnt\[6\] VGND sg13g2_inv_1
X_6260_ VGND VPWR _2860_ _2862_ _0454_ net421 sg13g2_a21oi_1
XFILLER_9_1002 VPWR VGND sg13g2_decap_8
X_5211_ _1983_ _1987_ _1989_ VPWR VGND sg13g2_and2_1
X_6191_ _2810_ u_angle_cordic_12b_pmod.angle_cordic_12b.cordic.x\[1\]\[12\] _2809_
+ VPWR VGND sg13g2_xnor2_1
X_5142_ VGND VPWR net1163 _1928_ _0268_ _1930_ sg13g2_a21oi_1
X_5073_ VGND VPWR _1880_ _1881_ _0247_ _1882_ sg13g2_a21oi_1
X_4024_ _1020_ _1016_ _1019_ VPWR VGND sg13g2_xnor2_1
XFILLER_37_397 VPWR VGND sg13g2_fill_2
X_5975_ VGND VPWR _2628_ _2629_ _0401_ _2630_ sg13g2_a21oi_1
X_4926_ VPWR _1761_ _1760_ VGND sg13g2_inv_1
X_4857_ net483 VPWR _1703_ VGND net998 u_angle_cordic_12b_pmod.angle_cordic_12b.cordic.xyz\[9\].y_shr\[0\]
+ sg13g2_o21ai_1
X_3808_ _0787_ _0769_ _0851_ VPWR VGND sg13g2_xor2_1
XFILLER_21_798 VPWR VGND sg13g2_fill_1
X_4788_ VGND VPWR _1645_ u_angle_cordic_12b_pmod.angle_cordic_12b.cordic.x\[9\]\[10\]
+ u_angle_cordic_12b_pmod.angle_cordic_12b.cordic.x\[9\]\[9\] sg13g2_or2_1
X_6527_ net195 VGND VPWR net1453 u_angle_cordic_12b_pmod.angle_cordic_12b.cordic.y\[8\]\[3\]
+ clknet_leaf_41_clk sg13g2_dfrbpq_2
X_3739_ _0792_ _0789_ _0791_ VPWR VGND sg13g2_nand2b_1
X_6458_ net277 VGND VPWR _0067_ u_angle_cordic_12b_pmod.angle_cordic_12b.angle_gen.tri_amp\[11\]
+ clknet_leaf_16_clk sg13g2_dfrbpq_1
X_5409_ _2152_ u_angle_cordic_12b_pmod.angle_cordic_12b.cordic.x\[4\]\[5\] _2151_
+ VPWR VGND sg13g2_xnor2_1
X_6389_ VGND VPWR _2892_ _2893_ _0475_ _2890_ sg13g2_a21oi_1
XFILLER_0_647 VPWR VGND sg13g2_decap_8
XFILLER_18_53 VPWR VGND sg13g2_fill_1
XFILLER_15_1018 VPWR VGND sg13g2_decap_8
XFILLER_8_758 VPWR VGND sg13g2_fill_1
XFILLER_4_986 VPWR VGND sg13g2_decap_8
XFILLER_34_323 VPWR VGND sg13g2_fill_1
XFILLER_22_529 VPWR VGND sg13g2_fill_1
X_5760_ net517 net1084 _2448_ VPWR VGND sg13g2_nor2b_1
X_5691_ _2385_ _2390_ _2391_ VPWR VGND sg13g2_nor2_1
X_4711_ VPWR _1581_ _1580_ VGND sg13g2_inv_1
X_4642_ u_angle_cordic_12b_pmod.angle_cordic_12b.cordic.x\[8\]\[12\] net537 _1515_
+ _1523_ VPWR VGND sg13g2_a21o_1
Xhold703 _0192_ VPWR VGND net1460 sg13g2_dlygate4sd3_1
X_4573_ _1466_ _1459_ _1462_ _1464_ VPWR VGND sg13g2_and3_1
Xhold736 u_angle_cordic_12b_pmod.angle_cordic_12b.cordic.xyz\[9\].y_shr\[10\] VPWR
+ VGND net1493 sg13g2_dlygate4sd3_1
X_3524_ VPWR _0594_ u_angle_cordic_12b_pmod.angle_cordic_12b.cordic.xyz\[3\].y_shr\[2\]
+ VGND sg13g2_inv_1
Xhold725 u_angle_cordic_12b_pmod.angle_cordic_12b.cordic.x\[3\]\[9\] VPWR VGND net1482
+ sg13g2_dlygate4sd3_1
X_6312_ net758 net422 _0486_ VPWR VGND sg13g2_nor2_1
Xhold714 u_angle_cordic_12b_pmod.angle_cordic_12b.cordic.y\[7\]\[6\] VPWR VGND net1471
+ sg13g2_dlygate4sd3_1
Xhold747 u_angle_cordic_12b_pmod.angle_cordic_12b.cordic.x\[8\]\[9\] VPWR VGND net1504
+ sg13g2_dlygate4sd3_1
Xhold769 u_angle_cordic_12b_pmod.angle_cordic_12b.cordic.x\[8\]\[8\] VPWR VGND net1526
+ sg13g2_dlygate4sd3_1
X_6243_ _2851_ net455 _2850_ VPWR VGND sg13g2_nand2_1
Xhold758 u_angle_cordic_12b_pmod.angle_cordic_12b.cordic.y\[9\]\[7\] VPWR VGND net1515
+ sg13g2_dlygate4sd3_1
X_6174_ u_angle_cordic_12b_pmod.angle_cordic_12b.cordic.x\[1\]\[10\] _2794_ _2795_
+ VPWR VGND sg13g2_nor2_1
X_5125_ _0266_ net492 _1914_ _1915_ VPWR VGND sg13g2_and3_1
X_5056_ _1869_ _1865_ _1867_ _1868_ VPWR VGND sg13g2_and3_1
X_4007_ VGND VPWR u_angle_cordic_12b_pmod.angle_cordic_12b.angle_gen.tri_amp\[2\]
+ net549 _1005_ _1001_ sg13g2_a21oi_1
XFILLER_26_824 VPWR VGND sg13g2_fill_1
XFILLER_26_835 VPWR VGND sg13g2_fill_1
X_5958_ _2616_ u_angle_cordic_12b_pmod.angle_cordic_12b.cordic.x\[2\]\[12\] _2615_
+ VPWR VGND sg13g2_xnor2_1
X_6497__225 VPWR VGND net225 sg13g2_tiehi
XFILLER_41_849 VPWR VGND sg13g2_fill_2
X_4909_ VGND VPWR _1747_ _1746_ _1744_ sg13g2_or2_1
X_5889_ net512 u_angle_cordic_12b_pmod.angle_cordic_12b.cordic.x\[2\]\[2\] _2556_
+ VPWR VGND sg13g2_nor2b_1
XFILLER_1_945 VPWR VGND sg13g2_decap_8
X_6881__323 VPWR VGND net323 sg13g2_tiehi
Xhold41 u_angle_cordic_12b_pmod.angle_cordic_12b.cordic.z\[6\]\[0\] VPWR VGND net798
+ sg13g2_dlygate4sd3_1
XFILLER_0_488 VPWR VGND sg13g2_fill_1
Xhold30 u_angle_cordic_12b_pmod.angle_cordic_12b.cordic.z\[0\]\[6\] VPWR VGND net787
+ sg13g2_dlygate4sd3_1
Xhold63 u_angle_cordic_12b_pmod.angle_cordic_12b.cordic.x\[11\]\[3\] VPWR VGND net820
+ sg13g2_dlygate4sd3_1
Xhold74 u_angle_cordic_12b_pmod.u_vga_top.clk_div_cnt\[1\] VPWR VGND net831 sg13g2_dlygate4sd3_1
Xhold52 u_angle_cordic_12b_pmod.angle_cordic_12b.cordic.z\[3\]\[0\] VPWR VGND net809
+ sg13g2_dlygate4sd3_1
Xhold85 u_angle_cordic_12b_pmod.u_vga_top.h_cnt\[8\] VPWR VGND net842 sg13g2_dlygate4sd3_1
Xhold96 _0327_ VPWR VGND net853 sg13g2_dlygate4sd3_1
XFILLER_17_835 VPWR VGND sg13g2_fill_2
XFILLER_43_120 VPWR VGND sg13g2_fill_1
XFILLER_4_783 VPWR VGND sg13g2_decap_8
X_6861_ net363 VGND VPWR _0470_ u_angle_cordic_12b_pmod.angle_cordic_12b.cordic.xyz\[1\].y_shr\[5\]
+ clknet_leaf_63_clk sg13g2_dfrbpq_2
X_5812_ _2489_ u_angle_cordic_12b_pmod.angle_cordic_12b.cordic.xyz\[2\].y_shr\[3\]
+ _2490_ VPWR VGND sg13g2_xor2_1
X_6858__369 VPWR VGND net369 sg13g2_tiehi
X_6792_ net633 VGND VPWR net1324 u_angle_cordic_12b_pmod.angle_cordic_12b.cordic.xyz\[3\].y_shr\[10\]
+ clknet_leaf_9_clk sg13g2_dfrbpq_2
X_5743_ _2434_ net412 net1280 VPWR VGND sg13g2_nand2_1
X_5674_ _2374_ net1443 _2376_ VPWR VGND sg13g2_xor2_1
X_4625_ net538 _1507_ _1508_ VPWR VGND sg13g2_nor2_1
X_4556_ _1449_ _1451_ _1447_ _1452_ VPWR VGND sg13g2_nand3_1
Xhold500 _0303_ VPWR VGND net1257 sg13g2_dlygate4sd3_1
Xhold511 u_angle_cordic_12b_pmod.angle_cordic_12b.cordic.z\[5\]\[9\] VPWR VGND net1268
+ sg13g2_dlygate4sd3_1
X_3507_ VPWR _0577_ net1554 VGND sg13g2_inv_1
Xhold533 _0271_ VPWR VGND net1290 sg13g2_dlygate4sd3_1
Xhold522 _1199_ VPWR VGND net1279 sg13g2_dlygate4sd3_1
Xhold544 _0106_ VPWR VGND net1301 sg13g2_dlygate4sd3_1
Xhold555 _0187_ VPWR VGND net1312 sg13g2_dlygate4sd3_1
Xhold577 u_angle_cordic_12b_pmod.angle_cordic_12b.cordic.x\[3\]\[8\] VPWR VGND net1334
+ sg13g2_dlygate4sd3_1
Xhold588 _0438_ VPWR VGND net1345 sg13g2_dlygate4sd3_1
Xhold566 u_angle_cordic_12b_pmod.angle_cordic_12b.cordic.xyz\[2\].y_shr\[10\] VPWR
+ VGND net1323 sg13g2_dlygate4sd3_1
X_4487_ _1395_ _0601_ _1394_ VPWR VGND sg13g2_xnor2_1
Xhold599 _1127_ VPWR VGND net1356 sg13g2_dlygate4sd3_1
X_6226_ _2837_ net417 net1235 VPWR VGND sg13g2_nand2_1
X_6157_ u_angle_cordic_12b_pmod.angle_cordic_12b.cordic.x\[1\]\[8\] _2779_ _2780_
+ VPWR VGND sg13g2_nor2_1
X_5108_ net526 _1892_ _1900_ VPWR VGND sg13g2_nor2_1
X_6429__322 VPWR VGND net322 sg13g2_tiehi
X_6088_ _2719_ u_angle_cordic_12b_pmod.angle_cordic_12b.cordic.x\[1\]\[10\] _2721_
+ VPWR VGND sg13g2_xor2_1
X_5039_ VGND VPWR _1851_ _1852_ _0241_ _1854_ sg13g2_a21oi_1
Xoutput20 net20 uo_out[3] VPWR VGND sg13g2_buf_1
XFILLER_1_742 VPWR VGND sg13g2_decap_8
XFILLER_29_470 VPWR VGND sg13g2_fill_1
XFILLER_29_481 VPWR VGND sg13g2_fill_2
XFILLER_36_429 VPWR VGND sg13g2_fill_1
X_6640__82 VPWR VGND net82 sg13g2_tiehi
XFILLER_9_897 VPWR VGND sg13g2_decap_8
X_4410_ net1374 _1329_ _1330_ VPWR VGND sg13g2_and2_1
X_5390_ _2132_ net1479 _2137_ VPWR VGND sg13g2_xor2_1
X_4341_ _1273_ net410 net1080 VPWR VGND sg13g2_nand2_1
XFILLER_28_1006 VPWR VGND sg13g2_decap_8
X_4272_ _1215_ _1216_ _0112_ VPWR VGND sg13g2_nor2b_1
X_6011_ net1047 _2652_ _0414_ VPWR VGND sg13g2_nor2b_1
X_6487__235 VPWR VGND net235 sg13g2_tiehi
XFILLER_11_0 VPWR VGND sg13g2_fill_2
X_6913_ net272 VGND VPWR net1109 u_angle_cordic_12b_pmod.angle_cordic_12b.angle_gen.cnt\[7\]
+ clknet_leaf_14_clk sg13g2_dfrbpq_1
XFILLER_35_451 VPWR VGND sg13g2_fill_1
X_6844_ net581 VGND VPWR _0453_ u_angle_cordic_12b_pmod.angle_cordic_12b.cordic.x\[1\]\[1\]
+ clknet_leaf_64_clk sg13g2_dfrbpq_2
X_6775_ net650 VGND VPWR _0384_ u_angle_cordic_12b_pmod.angle_cordic_12b.cordic.x\[3\]\[8\]
+ clknet_leaf_58_clk sg13g2_dfrbpq_2
X_3987_ net423 _0987_ _0988_ VPWR VGND sg13g2_nor2_1
X_5726_ _2420_ _2421_ _0361_ VPWR VGND sg13g2_nor2b_1
X_6494__228 VPWR VGND net228 sg13g2_tiehi
X_5657_ _2361_ net1446 _2359_ VPWR VGND sg13g2_xnor2_1
XFILLER_11_1010 VPWR VGND sg13g2_decap_8
X_4608_ u_angle_cordic_12b_pmod.angle_cordic_12b.cordic.xyz\[8\].z_sign u_angle_cordic_12b_pmod.angle_cordic_12b.cordic.x\[8\]\[8\]
+ _1493_ VPWR VGND sg13g2_nor2b_1
X_5588_ _2301_ u_angle_cordic_12b_pmod.angle_cordic_12b.cordic.xyz\[3\].y_shr\[5\]
+ _2302_ VPWR VGND sg13g2_xor2_1
Xhold341 _0134_ VPWR VGND net1098 sg13g2_dlygate4sd3_1
X_4539_ VPWR _1439_ _1438_ VGND sg13g2_inv_1
Xhold352 _0508_ VPWR VGND net1109 sg13g2_dlygate4sd3_1
Xhold330 _1481_ VPWR VGND net1087 sg13g2_dlygate4sd3_1
Xhold385 u_angle_cordic_12b_pmod.angle_cordic_12b.cordic.z\[9\]\[10\] VPWR VGND net1142
+ sg13g2_dlygate4sd3_1
Xhold374 _2726_ VPWR VGND net1131 sg13g2_dlygate4sd3_1
Xhold363 u_angle_cordic_12b_pmod.angle_cordic_12b.cordic.z\[7\]\[5\] VPWR VGND net1120
+ sg13g2_dlygate4sd3_1
Xhold396 u_angle_cordic_12b_pmod.angle_cordic_12b.cordic.z\[8\]\[5\] VPWR VGND net1153
+ sg13g2_dlygate4sd3_1
X_6209_ _2823_ net508 net1049 VPWR VGND sg13g2_xnor2_1
XFILLER_19_919 VPWR VGND sg13g2_decap_8
XFILLER_45_248 VPWR VGND sg13g2_fill_2
XFILLER_27_974 VPWR VGND sg13g2_decap_8
XFILLER_10_852 VPWR VGND sg13g2_decap_8
XFILLER_6_867 VPWR VGND sg13g2_decap_8
XFILLER_5_377 VPWR VGND sg13g2_fill_2
XFILLER_1_561 VPWR VGND sg13g2_fill_1
XFILLER_18_996 VPWR VGND sg13g2_decap_8
X_3910_ net443 VPWR _0926_ VGND net863 _0925_ sg13g2_o21ai_1
X_4890_ _1730_ _1724_ _1727_ VPWR VGND sg13g2_nand2_1
X_3841_ net419 net875 _0876_ _0021_ VPWR VGND sg13g2_nor3_1
X_6560_ net162 VGND VPWR _0169_ u_angle_cordic_12b_pmod.angle_cordic_12b.cordic.z\[9\]\[10\]
+ clknet_leaf_39_clk sg13g2_dfrbpq_1
X_3772_ _0820_ _0539_ net895 VPWR VGND sg13g2_nand2_1
X_5511_ VGND VPWR net524 net1089 _2238_ _2237_ sg13g2_a21oi_1
X_6491_ net231 VGND VPWR _0100_ u_angle_cordic_12b_pmod.angle_cordic_12b.cordic.y\[7\]\[5\]
+ clknet_leaf_43_clk sg13g2_dfrbpq_2
X_5442_ _2181_ net1317 _2180_ VPWR VGND sg13g2_nand2_1
X_5373_ net477 VPWR _2123_ VGND _2117_ _2122_ sg13g2_o21ai_1
X_4324_ net770 net436 _0121_ VPWR VGND sg13g2_nor2_1
XFILLER_47_19 VPWR VGND sg13g2_fill_1
X_4255_ VGND VPWR _1194_ _1198_ _1201_ _1197_ sg13g2_a21oi_1
X_4186_ _1142_ _1136_ _1144_ VPWR VGND sg13g2_nor2b_1
XFILLER_24_933 VPWR VGND sg13g2_fill_1
X_6827_ net598 VGND VPWR net1492 u_angle_cordic_12b_pmod.angle_cordic_12b.cordic.xyz\[2\].y_shr\[7\]
+ clknet_leaf_59_clk sg13g2_dfrbpq_2
XFILLER_24_988 VPWR VGND sg13g2_decap_8
X_6758_ net667 VGND VPWR _0367_ u_angle_cordic_12b_pmod.angle_cordic_12b.cordic.z\[4\]\[3\]
+ clknet_leaf_31_clk sg13g2_dfrbpq_1
X_5709_ _2400_ _2405_ _2407_ VPWR VGND sg13g2_and2_1
X_6689_ net750 VGND VPWR _0298_ u_angle_cordic_12b_pmod.angle_cordic_12b.cordic.z\[6\]\[10\]
+ clknet_leaf_43_clk sg13g2_dfrbpq_1
XFILLER_3_815 VPWR VGND sg13g2_decap_8
Xhold160 _2924_ VPWR VGND net917 sg13g2_dlygate4sd3_1
Xhold171 _0505_ VPWR VGND net928 sg13g2_dlygate4sd3_1
Xhold182 u_angle_cordic_12b_pmod.angle_cordic_12b.cordic.xyz\[0\].z_sign VPWR VGND
+ net939 sg13g2_dlygate4sd3_1
Xhold193 u_angle_cordic_12b_pmod.u_vga_top.h_cnt\[2\] VPWR VGND net950 sg13g2_dlygate4sd3_1
XFILLER_46_502 VPWR VGND sg13g2_fill_1
XFILLER_15_955 VPWR VGND sg13g2_decap_8
XFILLER_27_782 VPWR VGND sg13g2_fill_2
X_6477__245 VPWR VGND net245 sg13g2_tiehi
X_4040_ _1033_ _0937_ _1027_ VPWR VGND sg13g2_nand2_1
X_6484__238 VPWR VGND net238 sg13g2_tiehi
XFILLER_18_760 VPWR VGND sg13g2_fill_2
X_5991_ VGND VPWR _2634_ _2636_ _0409_ _2638_ sg13g2_a21oi_1
X_4942_ _1774_ net1160 _1772_ VPWR VGND sg13g2_xnor2_1
X_6612_ net110 VGND VPWR _0221_ u_angle_cordic_12b_pmod.angle_cordic_12b.cordic.x\[10\]\[10\]
+ clknet_leaf_24_clk sg13g2_dfrbpq_2
X_4873_ VGND VPWR _0615_ _1710_ _1716_ net536 sg13g2_a21oi_1
XFILLER_21_947 VPWR VGND sg13g2_decap_8
XFILLER_32_251 VPWR VGND sg13g2_fill_1
X_3824_ _0864_ _0862_ _0863_ VPWR VGND sg13g2_xnor2_1
X_6543_ net179 VGND VPWR _0152_ u_angle_cordic_12b_pmod.angle_cordic_12b.cordic.x\[8\]\[6\]
+ clknet_leaf_37_clk sg13g2_dfrbpq_2
X_3755_ _0808_ _0797_ _0786_ VPWR VGND sg13g2_nand2b_1
X_6474_ net248 VGND VPWR _0083_ u_angle_cordic_12b_pmod.angle_cordic_12b.cordic.z\[7\]\[0\]
+ clknet_leaf_37_clk sg13g2_dfrbpq_2
X_3686_ _0739_ _0738_ _0725_ VPWR VGND sg13g2_nand2b_1
X_5425_ _2166_ u_angle_cordic_12b_pmod.angle_cordic_12b.cordic.x\[4\]\[7\] _2165_
+ VPWR VGND sg13g2_xnor2_1
X_5356_ net478 VPWR _2108_ VGND _2103_ _2107_ sg13g2_o21ai_1
XFILLER_0_829 VPWR VGND sg13g2_decap_8
X_4307_ _1246_ net1527 net381 VPWR VGND sg13g2_xnor2_1
X_5287_ net1144 net528 _2050_ VPWR VGND sg13g2_xor2_1
X_4238_ _1187_ net962 net991 VPWR VGND sg13g2_nand2_1
X_4169_ net1356 _1128_ _0097_ VPWR VGND sg13g2_nor2b_1
XFILLER_12_914 VPWR VGND sg13g2_decap_8
XFILLER_11_413 VPWR VGND sg13g2_fill_1
XFILLER_23_251 VPWR VGND sg13g2_fill_1
XFILLER_3_601 VPWR VGND sg13g2_fill_1
XFILLER_3_689 VPWR VGND sg13g2_decap_8
XFILLER_2_144 VPWR VGND sg13g2_fill_2
X_6659__63 VPWR VGND net63 sg13g2_tiehi
Xfanout492 net494 net492 VPWR VGND sg13g2_buf_8
Xfanout481 net482 net481 VPWR VGND sg13g2_buf_8
Xfanout470 net471 net470 VPWR VGND sg13g2_buf_1
XFILLER_0_47 VPWR VGND sg13g2_fill_2
XFILLER_31_1013 VPWR VGND sg13g2_decap_8
X_3540_ VPWR _0610_ u_angle_cordic_12b_pmod.angle_cordic_12b.cordic.y\[8\]\[7\] VGND
+ sg13g2_inv_1
XFILLER_7_995 VPWR VGND sg13g2_decap_8
X_3471_ VPWR _0541_ u_angle_cordic_12b_pmod.u_vga_top.h_cnt\[7\] VGND sg13g2_inv_1
X_5210_ _1983_ _1987_ _1988_ VPWR VGND sg13g2_nor2_1
X_6190_ VGND VPWR _0624_ _2795_ _2809_ net510 sg13g2_a21oi_1
X_5141_ _1930_ net493 _1929_ VPWR VGND sg13g2_nand2b_1
X_5072_ net464 VPWR _1882_ VGND _1880_ _1881_ sg13g2_o21ai_1
X_4023_ _1019_ _1018_ _1017_ VPWR VGND sg13g2_nand2b_1
X_5974_ net459 VPWR _2630_ VGND _2628_ _2629_ sg13g2_o21ai_1
X_4925_ net388 net1341 _1760_ VPWR VGND sg13g2_xor2_1
X_4856_ _1702_ net998 net1044 VPWR VGND sg13g2_nand2_1
X_3807_ VGND VPWR net552 _0850_ _0013_ net907 sg13g2_a21oi_1
X_4787_ _1641_ VPWR _1644_ VGND _1637_ _1642_ sg13g2_o21ai_1
X_6526_ net196 VGND VPWR _0135_ u_angle_cordic_12b_pmod.angle_cordic_12b.cordic.y\[8\]\[2\]
+ clknet_leaf_39_clk sg13g2_dfrbpq_2
X_3738_ _0791_ net408 _0754_ VPWR VGND sg13g2_xnor2_1
X_3669_ VGND VPWR _0640_ _0703_ _0722_ _0721_ sg13g2_a21oi_1
X_6868__349 VPWR VGND net349 sg13g2_tiehi
X_6457_ net279 VGND VPWR _0066_ u_angle_cordic_12b_pmod.angle_cordic_12b.angle_gen.tri_amp\[10\]
+ clknet_leaf_17_clk sg13g2_dfrbpq_2
XFILLER_47_1020 VPWR VGND sg13g2_decap_8
X_5408_ net521 u_angle_cordic_12b_pmod.angle_cordic_12b.cordic.x\[4\]\[4\] _2151_
+ VPWR VGND sg13g2_nor2b_1
X_6388_ _0474_ net447 _2891_ _2892_ VPWR VGND sg13g2_and3_1
X_5339_ _2089_ VPWR _2092_ VGND _2086_ _2090_ sg13g2_o21ai_1
XFILLER_0_626 VPWR VGND sg13g2_decap_8
X_6656__66 VPWR VGND net66 sg13g2_tiehi
XFILLER_29_822 VPWR VGND sg13g2_fill_1
XFILLER_18_43 VPWR VGND sg13g2_fill_1
XFILLER_29_899 VPWR VGND sg13g2_fill_1
X_6474__248 VPWR VGND net248 sg13g2_tiehi
X_6851__386 VPWR VGND net570 sg13g2_tiehi
XFILLER_4_965 VPWR VGND sg13g2_decap_8
XFILLER_38_107 VPWR VGND sg13g2_fill_2
XFILLER_38_118 VPWR VGND sg13g2_fill_1
Xclkbuf_leaf_58_clk clknet_4_8_0_clk clknet_leaf_58_clk VPWR VGND sg13g2_buf_8
Xclkbuf_4_11_0_clk clknet_0_clk clknet_4_11_0_clk VPWR VGND sg13g2_buf_8
X_4710_ _1580_ net1311 _1578_ VPWR VGND sg13g2_xnor2_1
X_5690_ _2388_ net1456 _2390_ VPWR VGND sg13g2_xor2_1
X_4641_ VGND VPWR net537 u_angle_cordic_12b_pmod.angle_cordic_12b.cordic.x\[8\]\[12\]
+ _1522_ _1515_ sg13g2_a21oi_1
X_4572_ VGND VPWR _1459_ _1462_ _1465_ _1464_ sg13g2_a21oi_1
Xhold737 u_angle_cordic_12b_pmod.angle_cordic_12b.cordic.y\[10\]\[3\] VPWR VGND net1494
+ sg13g2_dlygate4sd3_1
XFILLER_7_781 VPWR VGND sg13g2_decap_4
X_3523_ VPWR _0593_ u_angle_cordic_12b_pmod.angle_cordic_12b.cordic.x\[3\]\[1\] VGND
+ sg13g2_inv_1
Xhold726 u_angle_cordic_12b_pmod.angle_cordic_12b.cordic.xyz\[4\].y_shr\[6\] VPWR
+ VGND net1483 sg13g2_dlygate4sd3_1
X_6311_ net446 net780 _0485_ VPWR VGND sg13g2_and2_1
Xhold715 u_angle_cordic_12b_pmod.angle_cordic_12b.cordic.xyz\[7\].y_shr\[1\] VPWR
+ VGND net1472 sg13g2_dlygate4sd3_1
Xhold704 u_angle_cordic_12b_pmod.angle_cordic_12b.cordic.x\[7\]\[5\] VPWR VGND net1461
+ sg13g2_dlygate4sd3_1
Xhold748 u_angle_cordic_12b_pmod.angle_cordic_12b.cordic.x\[4\]\[4\] VPWR VGND net1505
+ sg13g2_dlygate4sd3_1
X_6242_ VGND VPWR _2850_ _2849_ _2848_ sg13g2_or2_1
Xhold759 _1680_ VPWR VGND net1516 sg13g2_dlygate4sd3_1
X_6173_ VGND VPWR _0623_ _2780_ _2794_ net507 sg13g2_a21oi_1
X_5124_ _1915_ _1906_ _1913_ VPWR VGND sg13g2_nand2_1
XFILLER_29_107 VPWR VGND sg13g2_fill_2
X_5055_ _1868_ net1219 net395 VPWR VGND sg13g2_xnor2_1
Xclkbuf_leaf_49_clk clknet_4_11_0_clk clknet_leaf_49_clk VPWR VGND sg13g2_buf_8
X_4006_ _1004_ net954 net376 VPWR VGND sg13g2_nand2_1
X_6653__69 VPWR VGND net69 sg13g2_tiehi
X_6798__443 VPWR VGND net627 sg13g2_tiehi
X_5957_ u_angle_cordic_12b_pmod.angle_cordic_12b.cordic.x\[2\]\[11\] net414 _2609_
+ _2615_ VPWR VGND sg13g2_a21o_1
X_4908_ _1746_ net1173 net388 VPWR VGND sg13g2_xnor2_1
X_5888_ net425 net974 _0389_ VPWR VGND sg13g2_nor2_1
X_4839_ _1688_ net1261 _1660_ VPWR VGND sg13g2_nand2_1
X_6509_ net213 VGND VPWR net1529 u_angle_cordic_12b_pmod.angle_cordic_12b.cordic.x\[7\]\[10\]
+ clknet_leaf_44_clk sg13g2_dfrbpq_2
XFILLER_1_924 VPWR VGND sg13g2_decap_8
Xhold20 _0050_ VPWR VGND net777 sg13g2_dlygate4sd3_1
Xhold31 u_angle_cordic_12b_pmod.angle_cordic_12b.cordic.x\[11\]\[9\] VPWR VGND net788
+ sg13g2_dlygate4sd3_1
Xhold42 u_angle_cordic_12b_pmod.angle_cordic_12b.cordic.z\[6\]\[1\] VPWR VGND net799
+ sg13g2_dlygate4sd3_1
Xhold64 u_angle_cordic_12b_pmod.angle_cordic_12b.angle\[8\] VPWR VGND net821 sg13g2_dlygate4sd3_1
Xhold53 u_angle_cordic_12b_pmod.angle_cordic_12b.cordic.z\[2\]\[5\] VPWR VGND net810
+ sg13g2_dlygate4sd3_1
Xhold97 u_angle_cordic_12b_pmod.angle_cordic_12b.angle_gen.cnt\[15\] VPWR VGND net854
+ sg13g2_dlygate4sd3_1
Xhold86 _0028_ VPWR VGND net843 sg13g2_dlygate4sd3_1
Xhold75 u_angle_cordic_12b_pmod.angle_cordic_12b.cordic.z\[8\]\[10\] VPWR VGND net832
+ sg13g2_dlygate4sd3_1
XFILLER_44_611 VPWR VGND sg13g2_fill_1
XFILLER_44_677 VPWR VGND sg13g2_fill_2
XFILLER_8_589 VPWR VGND sg13g2_fill_2
XFILLER_4_762 VPWR VGND sg13g2_decap_8
XFILLER_6_1028 VPWR VGND sg13g2_fill_1
XFILLER_0_990 VPWR VGND sg13g2_decap_8
X_6860_ net365 VGND VPWR net1042 u_angle_cordic_12b_pmod.angle_cordic_12b.cordic.xyz\[1\].y_shr\[4\]
+ clknet_leaf_64_clk sg13g2_dfrbpq_2
X_5811_ _2483_ VPWR _2489_ VGND net512 _0575_ sg13g2_o21ai_1
XFILLER_16_880 VPWR VGND sg13g2_fill_1
X_6791_ net634 VGND VPWR _0400_ u_angle_cordic_12b_pmod.angle_cordic_12b.cordic.xyz\[3\].y_shr\[8\]
+ clknet_leaf_57_clk sg13g2_dfrbpq_2
X_5742_ VGND VPWR net809 _2431_ _2433_ _2430_ sg13g2_a21oi_1
X_5673_ u_angle_cordic_12b_pmod.angle_cordic_12b.cordic.xyz\[3\].y_shr\[1\] _2374_
+ _2375_ VPWR VGND sg13g2_and2_1
X_4624_ u_angle_cordic_12b_pmod.angle_cordic_12b.cordic.x\[8\]\[8\] u_angle_cordic_12b_pmod.angle_cordic_12b.cordic.x\[8\]\[9\]
+ u_angle_cordic_12b_pmod.angle_cordic_12b.cordic.x\[8\]\[10\] _1507_ VPWR VGND sg13g2_nor3_1